
This summary file was generated by TurbSim (v1.06.00, 21-Sep-2012) on 30-Jul-2025 at 12:17:39.


Runtime Options:

       121  Random seed #1
    RANLUX  Type of random number generator
         F  Output binary HH turbulence parameters?
         F  Output formatted turbulence parameters?
         F  Output AeroDyn HH files?
         T  Output AeroDyn FF files?
         F  Output BLADED FF files?
         F  Output tower data?
         F  Output formatted FF files?
         F  Output coherent turbulence time step file?
         T  Clockwise rotation when looking downwind?
 0 -  NONE  IEC turbulence models scaled to exact specified standard deviation


Turbine/Model Specifications:

        12  Vertical grid-point matrix dimension
        12  Horizontal grid-point matrix dimension
     0.050  Time step [seconds]
     1.000  Analysis time [seconds]
  1000.000  Usable output time [seconds]
   150.000  Hub height [m]
   280.000  Grid height [m]
   300.000  Grid width [m]
     0.000  Vertical flow angle [degrees]
     0.000  Horizontal flow angle [degrees]


Meteorological Boundary Conditions:

    IECKAI  IEC Kaimal spectral model
         3  IEC standard: IEC 61400-3 Ed. 1: 2006
         B  IEC turbulence characteristic
       NTM  IEC Normal Turbulence Model
       N/A  IEC Extreme Turbulence Model (ETM) "c" parameter [m/s]
       IEC  Wind profile type
   150.000  Reference height [m]
     8.000  Reference wind speed [m/s]
       N/A  Jet height [m]
     0.140  Power law exponent
     0.030  Surface roughness length [m]


You have requested that the following file(s) be generated:

   WIND_8mps.bts (AeroDyn/TurbSim full-field wind file)


Turbulence Simulation Scaling Parameter Summary:

   Turbulence model used                            =  IEC Kaimal
   Turbulence characteristic                        =  B
   IEC turbulence type                              =  Normal Turbulence Model
   IEC standard                                     =  IEC 61400-3 Ed. 1: 2006
   Mean wind speed at hub height                    =    8.000 m/s
   Expected value of turbulence intensity at 15 m/s =   14.000%
   Characteristic value of standard deviation       =    1.624 m/s
   Turbulence scale                                 =   42.000 m
   u-component integral scale                       =  340.200 m
   Coherency scale                                  =  340.200 m
   Characteristic value of hub turbulence intensity =   20.300%
   Gradient Richardson number                       =    0.000

   Wind profile type                                =  Power law on rotor disk, logarithmic elsewhere
   Power law exponent                               =    0.140
   Mean shear across rotor disk                     =    0.012 (m/s)/m
   Assumed rotor diameter                           =  280.000 m
   Surface roughness length                         =    0.030 m

   Number of time steps in the FFT                  =    20800
   Number of time steps output                      =    20750


Mean Flow Angles:

   Vertical   =   0.0 degrees
   Horizontal =   0.0 degrees

Mean Wind Speed Profile:

   Height    Wind Speed   Horizontal Angle  U-comp (X)   V-comp (Y)   W-comp (Z)
     (m)        (m/s)         (degrees)       (m/s)        (m/s)        (m/s)   
   ------    ----------   ----------------  ----------   ----------   ----------
    290.0        8.77            0.00          8.77         0.00         0.00
    264.5        8.66            0.00          8.66         0.00         0.00
    239.1        8.54            0.00          8.54         0.00         0.00
    213.6        8.41            0.00          8.41         0.00         0.00
    188.2        8.26            0.00          8.26         0.00         0.00
    162.7        8.09            0.00          8.09         0.00         0.00
    150.0        8.00            0.00          8.00         0.00         0.00
    137.3        7.90            0.00          7.90         0.00         0.00
    111.8        7.68            0.00          7.68         0.00         0.00
     86.4        7.40            0.00          7.40         0.00         0.00
     60.9        7.05            0.00          7.05         0.00         0.00
     35.5        6.54            0.00          6.54         0.00         0.00
     10.0        5.48            0.00          5.48         0.00         0.00


Harvested Random Seeds after Generation of the Random Numbers:

     42035500 K1
            0 K2


Hub-Height Simulated Turbulence Statistical Summary:

   Type of Wind        Min (m/s)   Mean (m/s)    Max (m/s)  Sigma (m/s)       TI (%)
   ----------------    ---------   ----------    ---------  -----------       ------
   Longitudinal (u)         3.72         8.00        13.50        1.412       17.656
   Lateral (v)             -4.98         0.00         3.90        1.274       15.930
   Vertical (w)            -3.12         0.00         2.95        0.798        9.971
   U component              3.72         8.00        13.50        1.412       17.656
   V component             -4.98         0.00         3.90        1.274       15.930
   W component             -3.12         0.00         2.95        0.798        9.971
   Horizontal (U&V)         3.73         8.10        13.52        1.395       17.213
   Total                    3.93         8.14        13.54        1.387       17.028

                       Min Reynolds     Mean Reynolds    Max Reynolds    Correlation
   Product             Stress (m/s)^2   Stress (m/s)^2   Stress (m/s)^2  Coefficient
   ----------------    --------------   --------------   --------------  -----------
   u'w'                     -9.844            -0.013             9.685        -0.011
   u'v'                    -10.781            -0.175            10.985        -0.097
   v'w'                     -7.183             0.073            13.455         0.072


   Friction Velocity (Ustar)  =      0.113 m/s
   Maximum Instantaneous TKE  =     15.635 (m/s)^2
   Maximum Instantaneous CTKE =      6.732 (m/s)^2


Grid Point Variance Summary:

   Y-coord -150.00 -122.73  -95.45  -68.18  -40.91  -13.64   13.64   40.91   68.18   95.45  122.73  150.00

   Height   Standard deviation at grid points for the u component:
   290.00    1.426   1.418   1.400   1.332   1.425   1.432   1.455   1.555   1.612   1.636   1.572   1.493
   264.55    1.443   1.450   1.543   1.513   1.425   1.412   1.415   1.375   1.447   1.699   1.624   1.486
   239.09    1.690   1.598   1.571   1.456   1.397   1.354   1.429   1.284   1.462   1.534   1.534   1.443
   213.64    1.695   1.663   1.651   1.707   1.465   1.451   1.404   1.525   1.439   1.481   1.568   1.407
   188.18    1.713   1.698   1.627   1.629   1.471   1.443   1.405   1.298   1.444   1.548   1.602   1.562
   162.73    1.681   1.604   1.635   1.658   1.627   1.378   1.553   1.326   1.376   1.578   1.393   1.386
   137.27    1.558   1.574   1.598   1.631   1.435   1.517   1.564   1.414   1.515   1.509   1.406   1.483
   111.82    1.484   1.656   1.710   1.576   1.415   1.471   1.416   1.347   1.404   1.459   1.456   1.373
    86.36    1.584   1.544   1.635   1.533   1.495   1.519   1.487   1.259   1.600   1.529   1.482   1.644
    60.91    1.749   1.714   1.523   1.568   1.433   1.544   1.347   1.350   1.508   1.788   1.658   1.513
    35.45    1.617   1.539   1.519   1.563   1.556   1.404   1.359   1.539   1.527   1.587   1.610   1.604
    10.00    1.556   1.551   1.595   1.544   1.399   1.448   1.472   1.593   1.634   1.461   1.477   1.596

   Height   Standard deviation at grid points for the v component:
   290.00    1.274   1.274   1.274   1.274   1.274   1.274   1.274   1.274   1.274   1.274   1.274   1.274
   264.55    1.274   1.274   1.274   1.274   1.274   1.274   1.274   1.274   1.274   1.274   1.274   1.274
   239.09    1.274   1.274   1.274   1.274   1.274   1.274   1.274   1.274   1.274   1.274   1.274   1.274
   213.64    1.274   1.274   1.274   1.274   1.274   1.274   1.274   1.274   1.274   1.274   1.274   1.274
   188.18    1.274   1.274   1.274   1.274   1.274   1.274   1.274   1.274   1.274   1.274   1.274   1.274
   162.73    1.274   1.274   1.274   1.274   1.274   1.274   1.274   1.274   1.274   1.274   1.274   1.274
   137.27    1.274   1.274   1.274   1.274   1.274   1.274   1.274   1.274   1.274   1.274   1.274   1.274
   111.82    1.274   1.274   1.274   1.274   1.274   1.274   1.274   1.274   1.274   1.274   1.274   1.274
    86.36    1.274   1.274   1.274   1.274   1.274   1.274   1.274   1.274   1.274   1.274   1.274   1.274
    60.91    1.274   1.274   1.274   1.274   1.274   1.274   1.274   1.274   1.274   1.274   1.274   1.274
    35.45    1.274   1.274   1.274   1.274   1.274   1.274   1.274   1.274   1.274   1.274   1.274   1.274
    10.00    1.274   1.274   1.274   1.274   1.274   1.274   1.274   1.274   1.274   1.274   1.274   1.274

   Height   Standard deviation at grid points for the w component:
   290.00    0.798   0.798   0.798   0.798   0.798   0.798   0.798   0.798   0.798   0.798   0.798   0.798
   264.55    0.798   0.798   0.798   0.798   0.798   0.798   0.798   0.798   0.798   0.798   0.798   0.798
   239.09    0.798   0.798   0.798   0.798   0.798   0.798   0.798   0.798   0.798   0.798   0.798   0.798
   213.64    0.798   0.798   0.798   0.798   0.798   0.798   0.798   0.798   0.798   0.798   0.798   0.798
   188.18    0.798   0.798   0.798   0.798   0.798   0.798   0.798   0.798   0.798   0.798   0.798   0.798
   162.73    0.798   0.798   0.798   0.798   0.798   0.798   0.798   0.798   0.798   0.798   0.798   0.798
   137.27    0.798   0.798   0.798   0.798   0.798   0.798   0.798   0.798   0.798   0.798   0.798   0.798
   111.82    0.798   0.798   0.798   0.798   0.798   0.798   0.798   0.798   0.798   0.798   0.798   0.798
    86.36    0.798   0.798   0.798   0.798   0.798   0.798   0.798   0.798   0.798   0.798   0.798   0.798
    60.91    0.798   0.798   0.798   0.798   0.798   0.798   0.798   0.798   0.798   0.798   0.798   0.798
    35.45    0.798   0.798   0.798   0.798   0.798   0.798   0.798   0.798   0.798   0.798   0.798   0.798
    10.00    0.798   0.798   0.798   0.798   0.798   0.798   0.798   0.798   0.798   0.798   0.798   0.798

   Mean standard deviation across all grid points:
      u component:    1.515 m/s
      v component:    1.274 m/s
      w component:    0.798 m/s


U-component (X) statistics from the interpolated hub point:

   Mean =   7.9965 m/s
   TI   =  15.1919 %

Nyquist frequency of turbulent wind field =        10.000 Hz


Processing complete.  0.67188 CPU seconds used.
